/*--------------------------------*- C++ -*----------------------------------*\
| =========                 |                                                 |
| \\      /  F ield         | OpenFOAM: The Open Source CFD Toolbox           |
|  \\    /   O peration     | Version:  2206                                  |
|   \\  /    A nd           | Website:  www.openfoam.com                      |
|    \\/     M anipulation  |                                                 |
\*---------------------------------------------------------------------------*/
FoamFile
{
    version     2.0;
    format      ascii;
    arch        "LSB;label=32;scalar=64";
    class       polyBoundaryMesh;
    location    "constant/polyMesh";
    object      boundary;
}
// * * * * * * * * * * * * * * * * * * * * * * * * * * * * * * * * * * * * * //

6
(
    Side
    {
        type            empty;
        physicalType    patch;
        inGroups        1(empty);
        nFaces          2800;
        startFace       2670;
    }
    Inlet
    {
        type            patch;
        physicalType    patch;
        nFaces          28;
        startFace       5470;
    }
    Airfoil
    {
        type            wall;
        physicalType    patch;
        inGroups        1(wall);
        nFaces          0;
        startFace       5498;
    }
    Outlet
    {
        type            patch;
        physicalType    patch;
        nFaces          112;
        startFace       5498;
    }
    Flap
    {
        type            wall;
        physicalType    patch;
        inGroups        1(wall);
        nFaces          0;
        startFace       5610;
    }
    procBoundary7to6
    {
        type            processor;
        inGroups        1(processor);
        nFaces          120;
        startFace       5610;
        matchTolerance  0.0001;
        transform       unknown;
        myProcNo        7;
        neighbProcNo    6;
    }
)

// ************************************************************************* //
