/*--------------------------------*- C++ -*----------------------------------*\
| =========                 |                                                 |
| \\      /  F ield         | OpenFOAM: The Open Source CFD Toolbox           |
|  \\    /   O peration     | Version:  v2006                                 |
|   \\  /    A nd           | Website:  www.openfoam.com                      |
|    \\/     M anipulation  |                                                 |
\*---------------------------------------------------------------------------*/
FoamFile
{
    version     2.0;
    format      ascii;
    class       dictionary;
    location    "system";
    object      fvSchemes;
}
// * * * * * * * * * * * * * * * * * * * * * * * * * * * * * * * * * * * * * //

fluxScheme      Kurganov;

ddtSchemes
{
    default         backward;;
}

gradSchemes
{
    default      leastSquares;
}

divSchemes
{
    default         none;
    div(tauMC)      Gauss linear;
    div(phi,U)      Gauss vanLeerV;
  div(phiv,p)      Gauss upwind;
  div(phid,p)      Gauss vanLeer;
  div(phi,K)      Gauss vanLeer;
  div(phi,e)      Gauss vanLeer;
  div(phi,nuTilda) Gauss vanLeer;
  div(((rho*nuEff)*dev2(T(grad(U))))) Gauss linear ;
  div(phi,Ekp) Gauss vanLeer;
}

laplacianSchemes
{
    default         Gauss linear corrected;
}

interpolationSchemes
{
    default         midPoint;
    reconstruct(rho) vanLeer;
    reconstruct(U)  vanLeerV;
    reconstruct(T)  vanLeer;
}

snGradSchemes
{
    default         corrected;
}

wallDist
{
    method          meshWave;
}

// ************************************************************************* //
