/*--------------------------------*- C++ -*----------------------------------*\
| =========                 |                                                 |
| \\      /  F ield         | OpenFOAM: The Open Source CFD Toolbox           |
|  \\    /   O peration     | Version:  2206                                  |
|   \\  /    A nd           | Website:  www.openfoam.com                      |
|    \\/     M anipulation  |                                                 |
\*---------------------------------------------------------------------------*/
FoamFile
{
    version     2.0;
    format      ascii;
    arch        "LSB;label=32;scalar=64";
    class       polyBoundaryMesh;
    location    "constant/polyMesh";
    object      boundary;
}
// * * * * * * * * * * * * * * * * * * * * * * * * * * * * * * * * * * * * * //

5
(
    Side
    {
        type            patch;
        physicalType    patch;
        nFaces          548788;
        startFace       547473;
    }
    Inlet
    {
        type            patch;
        physicalType    patch;
        nFaces          1417;
        startFace       1096261;
    }
    Outlet
    {
        type            patch;
        physicalType    patch;
        nFaces          395;
        startFace       1097678;
    }
    Flap
    {
        type            patch;
        physicalType    patch;
        nFaces          289;
        startFace       1098073;
    }
    Airfoil
    {
        type            patch;
        physicalType    patch;
        nFaces          529;
        startFace       1098362;
    }
)

// ************************************************************************* //
