/*--------------------------------*- C++ -*----------------------------------*\
| =========                 |                                                 |
| \\      /  F ield         | OpenFOAM: The Open Source CFD Toolbox           |
|  \\    /   O peration     | Version:  2206                                  |
|   \\  /    A nd           | Website:  www.openfoam.com                      |
|    \\/     M anipulation  |                                                 |
\*---------------------------------------------------------------------------*/
FoamFile
{
    version     2.0;
    format      ascii;
    arch        "LSB;label=32;scalar=64";
    class       polyBoundaryMesh;
    location    "constant/polyMesh";
    object      boundary;
}
// * * * * * * * * * * * * * * * * * * * * * * * * * * * * * * * * * * * * * //

7
(
    Side
    {
        type            empty;
        physicalType    patch;
        inGroups        1(empty);
        nFaces          2792;
        startFace       2677;
    }
    Inlet
    {
        type            patch;
        physicalType    patch;
        nFaces          42;
        startFace       5469;
    }
    Airfoil
    {
        type            wall;
        physicalType    patch;
        inGroups        1(wall);
        nFaces          57;
        startFace       5511;
    }
    Outlet
    {
        type            patch;
        physicalType    patch;
        nFaces          0;
        startFace       5568;
    }
    Flap
    {
        type            wall;
        physicalType    patch;
        inGroups        1(wall);
        nFaces          0;
        startFace       5568;
    }
    procBoundary1to0
    {
        type            processor;
        inGroups        1(processor);
        nFaces          58;
        startFace       5568;
        matchTolerance  0.0001;
        transform       unknown;
        myProcNo        1;
        neighbProcNo    0;
    }
    procBoundary1to2
    {
        type            processor;
        inGroups        1(processor);
        nFaces          73;
        startFace       5626;
        matchTolerance  0.0001;
        transform       unknown;
        myProcNo        1;
        neighbProcNo    2;
    }
)

// ************************************************************************* //
