/*--------------------------------*- C++ -*----------------------------------*\
| =========                 |                                                 |
| \\      /  F ield         | OpenFOAM: The Open Source CFD Toolbox           |
|  \\    /   O peration     | Version:  2206                                  |
|   \\  /    A nd           | Website:  www.openfoam.com                      |
|    \\/     M anipulation  |                                                 |
\*---------------------------------------------------------------------------*/
FoamFile
{
    version     2.0;
    format      ascii;
    arch        "LSB;label=32;scalar=64";
    class       polyBoundaryMesh;
    location    "constant/polyMesh";
    object      boundary;
}
// * * * * * * * * * * * * * * * * * * * * * * * * * * * * * * * * * * * * * //

6
(
    Side
    {
        type            empty;
        physicalType    patch;
        inGroups        1(empty);
        nFaces          2792;
        startFace       2713;
    }
    Inlet
    {
        type            patch;
        physicalType    patch;
        nFaces          49;
        startFace       5505;
    }
    Airfoil
    {
        type            wall;
        physicalType    patch;
        inGroups        1(wall);
        nFaces          51;
        startFace       5554;
    }
    Outlet
    {
        type            patch;
        physicalType    patch;
        nFaces          0;
        startFace       5605;
    }
    Flap
    {
        type            wall;
        physicalType    patch;
        inGroups        1(wall);
        nFaces          0;
        startFace       5605;
    }
    procBoundary0to1
    {
        type            processor;
        inGroups        1(processor);
        nFaces          58;
        startFace       5605;
        matchTolerance  0.0001;
        transform       unknown;
        myProcNo        0;
        neighbProcNo    1;
    }
)

// ************************************************************************* //
