/*--------------------------------*- C++ -*----------------------------------*\
| =========                 |                                                 |
| \\      /  F ield         | OpenFOAM: The Open Source CFD Toolbox           |
|  \\    /   O peration     | Version:  2206                                  |
|   \\  /    A nd           | Website:  www.openfoam.com                      |
|    \\/     M anipulation  |                                                 |
\*---------------------------------------------------------------------------*/
FoamFile
{
    version     2.0;
    format      ascii;
    arch        "LSB;label=32;scalar=64";
    class       polyBoundaryMesh;
    location    "constant/polyMesh";
    object      boundary;
}
// * * * * * * * * * * * * * * * * * * * * * * * * * * * * * * * * * * * * * //

7
(
    Side
    {
        type            empty;
        physicalType    patch;
        inGroups        1(empty);
        nFaces          2792;
        startFace       2641;
    }
    Inlet
    {
        type            patch;
        physicalType    patch;
        nFaces          15;
        startFace       5433;
    }
    Airfoil
    {
        type            wall;
        physicalType    patch;
        inGroups        1(wall);
        nFaces          0;
        startFace       5448;
    }
    Outlet
    {
        type            patch;
        physicalType    patch;
        nFaces          0;
        startFace       5448;
    }
    Flap
    {
        type            wall;
        physicalType    patch;
        inGroups        1(wall);
        nFaces          32;
        startFace       5448;
    }
    procBoundary3to2
    {
        type            processor;
        inGroups        1(processor);
        nFaces          113;
        startFace       5480;
        matchTolerance  0.0001;
        transform       unknown;
        myProcNo        3;
        neighbProcNo    2;
    }
    procBoundary3to4
    {
        type            processor;
        inGroups        1(processor);
        nFaces          142;
        startFace       5593;
        matchTolerance  0.0001;
        transform       unknown;
        myProcNo        3;
        neighbProcNo    4;
    }
)

// ************************************************************************* //
