/*--------------------------------*- C++ -*----------------------------------*\
| =========                 |                                                 |
| \\      /  F ield         | OpenFOAM: The Open Source CFD Toolbox           |
|  \\    /   O peration     | Version:  2206                                  |
|   \\  /    A nd           | Website:  www.openfoam.com                      |
|    \\/     M anipulation  |                                                 |
\*---------------------------------------------------------------------------*/
FoamFile
{
    version     2.0;
    format      ascii;
    arch        "LSB;label=32;scalar=64";
    class       polyBoundaryMesh;
    location    "constant/polyMesh";
    object      boundary;
}
// * * * * * * * * * * * * * * * * * * * * * * * * * * * * * * * * * * * * * //

5
(
    Side
    {
        type            empty;
        physicalType    patch;
        nFaces          343114;
        startFace       342187;
    }
    Inlet
    {
        type            patch;
        physicalType    patch;
        nFaces          1151;
        startFace       685301;
    }
    Airfoil
    {
        type            wall;
        physicalType    patch;
        nFaces          258;
        startFace       686452;
    }
    Outlet
    {
        type            patch;
        physicalType    patch;
        nFaces          312;
        startFace       686710;
    }
    Flap
    {
        type            wall;
        physicalType    patch;
        nFaces          133;
        startFace       687022;
    }
)

// ************************************************************************* //
